/*--------------------------------*- C++ -*----------------------------------*\
| =========                 |                                                 |
| \\      /  F ield         | OpenFOAM: The Open Source CFD Toolbox           |
|  \\    /   O peration     | Version:  2.3.0                                 |
|   \\  /    A nd           | Web:      www.OpenFOAM.org                      |
|    \\/     M anipulation  |                                                 |
\*---------------------------------------------------------------------------*/
FoamFile
{
    version     2.0;
    format      ascii;
    class       volScalarField;
    location    "0";
    object      nut;
}
// * * * * * * * * * * * * * * * * * * * * * * * * * * * * * * * * * * * * * //

dimensions      [0 2 -1 0 0 0 0];

internalField   uniform 0;

boundaryField
{
    INLET
    {
        type            calculated;
        value           uniform 0;
    }
    OUTLET
    {
        type            zeroGradient;
    }
    TOP
    {
        type            nutkWallFunction;
        value           uniform 0;
    }
    BOT
    {
        type            nutkWallFunction;
        value           uniform 0;
    }
    FRONT-WALL
    {
        type            symmetry;
    }
    BACK-WALL
    {
        type            symmetry;
    }
    CYLINDER
    {
        type            nutkWallFunction;
        value           uniform 0;
    }
}


// ************************************************************************* //
